@<TRIPOS>MOLECULE
2W3K_ligand
 42 46 0 0 0
SMALL
GASTEIGER

@<TRIPOS>ATOM
      1 C          -3.7194   -7.3468   23.6480 C.3     1  UNL1        0.1273
      2 O          -3.9435   -5.9671   23.3350 O.3     1  UNL1       -0.3809
      3 C          -4.9069   -7.8326   24.4501 C.3     1  UNL1        0.1264
      4 N          -5.9568   -7.6272   23.4392 N.am    1  UNL1       -0.2544
      5 C          -7.2759   -8.0372   23.8030 C.2     1  UNL1        0.3081
      6 O          -8.0367   -8.3572   22.9129 O.2     1  UNL1       -0.2522
      7 N          -7.6557   -8.0190   25.0846 N.am    1  UNL1       -0.2681
      8 C          -5.3939   -8.1791   22.1848 C.3     1  UNL1        0.1561
      9 C          -3.8756   -8.1446   22.3728 C.3     1  UNL1        0.0621
     10 H          -3.1962   -5.6271   22.8197 H       1  UNL1        0.2107
     11 H          -6.9557   -7.9674   25.7747 H       1  UNL1        0.1564
     12 C          -8.9615   -8.0683   25.4933 C.ar    1  UNL1        0.0516
     13 C          -9.3412   -7.2845   26.5795 C.ar    1  UNL1        0.0156
     14 C         -10.6846   -7.1667   26.9244 C.ar    1  UNL1        0.0127
     15 C         -11.6553   -7.8484   26.2025 C.ar    1  UNL1        0.0578
     16 CL        -13.3796   -7.6583   26.6697 Cl      1  UNL1       -0.0822
     17 C         -11.2857   -8.6306   25.1153 C.ar    1  UNL1        0.0127
     18 C          -9.9441   -8.7579   24.7653 C.ar    1  UNL1        0.0156
     19 C           0.0894   -7.7388   25.6454 C.ar    1  UNL1       -0.0000
     20 C          -0.2936   -6.5174   25.1007 C.ar    1  UNL1       -0.0002
     21 C          -1.5250   -6.4011   24.4582 C.ar    1  UNL1       -0.0020
     22 C          -2.3878   -7.5014   24.3489 C.ar    1  UNL1        0.0034
     23 C          -1.9937   -8.7246   24.8953 C.ar    1  UNL1       -0.0020
     24 C          -0.7593   -8.8398   25.5417 C.ar    1  UNL1       -0.0002
     25 C          -5.7986   -7.3117   21.0286 C.2     1  UNL1        0.2444
     26 O          -5.7554   -7.7552   19.8945 O.2     1  UNL1       -0.2730
     27 N          -6.2027   -6.0709   21.3205 N.am    1  UNL1       -0.2808
     28 H          -6.1931   -5.7861   22.2624 H       1  UNL1        0.1550
     29 C          -6.6287   -5.1777   20.3775 C.ar    1  UNL1        0.0783
     30 C          -6.0706   -3.9098   20.3581 C.ar    1  UNL1        0.1549
     31 C          -6.5697   -2.9145   19.5148 C.ar    1  UNL1        0.0485
     32 C          -7.6439   -3.2038   18.6714 C.ar    1  UNL1        0.0692
     33 C          -8.2096   -4.4775   18.6909 C.ar    1  UNL1        0.0190
     34 C          -7.7068   -5.4638   19.5378 C.ar    1  UNL1        0.0185
     35 F          -5.0330   -3.6467   21.1727 F       1  UNL1       -0.2028
     36 N          -8.1792   -2.2919   17.8367 N.ar    1  UNL1       -0.2731
     37 C          -9.3338   -1.7018   18.1987 C.ar    1  UNL1        0.0829
     38 C          -9.9561   -0.7711   17.3702 C.ar    1  UNL1        0.0192
     39 C          -9.3766   -0.4436   16.1516 C.ar    1  UNL1        0.0064
     40 C          -8.1850   -1.0617   15.7900 C.ar    1  UNL1        0.0611
     41 C          -7.6018   -1.9913   16.6504 C.ar    1  UNL1        0.2648
     42 O          -6.5322   -2.5275   16.2896 O.2     1  UNL1       -0.2666
@<TRIPOS>BOND
     1    19    20   ar
     2    19    24   ar
     3    20    21   ar
     4    21    22   ar
     5    22    23   ar
     6    22     1    1
     7    23    24   ar
     8     1     2    1
     9     1     3    1
    10     1     9    1
    11     2    10    1
    12     3     4    1
    13     4     5   am
    14     4     8    1
    15     5     6    2
    16     5     7   am
    17     7    12    1
    18     7    11    1
    19    12    13   ar
    20    12    18   ar
    21    13    14   ar
    22    14    15   ar
    23    15    16    1
    24    15    17   ar
    25    17    18   ar
    26     8     9    1
    27     8    25    1
    28    25    26    2
    29    25    27   am
    30    27    29    1
    31    27    28    1
    32    29    30   ar
    33    29    34   ar
    34    30    31   ar
    35    30    35    1
    36    31    32   ar
    37    32    33   ar
    38    32    36    1
    39    33    34   ar
    40    36    37   ar
    41    36    41   ar
    42    37    38   ar
    43    38    39   ar
    44    39    40   ar
    45    40    41   ar
    46    41    42    2
