@<TRIPOS>MOLECULE
1A28_ligand
 23 26 0 0 0
SMALL
GASTEIGER

@<TRIPOS>ATOM
      1 C          20.6397   11.0655   57.3105 C.3     1  UNL1        0.0118
      2 C          20.5536   11.7383   55.9172 C.3     1  UNL1        0.0694
      3 C          21.2336   13.1030   55.9681 C.2     1  UNL1        0.1725
      4 O          20.8345   14.0122   55.2195 O.2     1  UNL1       -0.2914
      5 C          22.3918   13.3088   56.8243 C.2     1  UNL1        0.0289
      6 C          22.8328   12.3626   57.6331 C.2     1  UNL1       -0.0420
      7 C          24.1108   12.6147   58.4248 C.3     1  UNL1        0.0221
      8 C          23.9712   12.2160   59.9063 C.3     1  UNL1        0.0044
      9 C          23.4091   10.7851   60.1080 C.3     1  UNL1        0.0006
     10 C          22.0143   10.7027   59.4063 C.3     1  UNL1        0.0035
     11 C          22.0891   10.9832   57.8593 C.3     1  UNL1        0.0157
     12 C          21.3111    9.3533   59.7054 C.3     1  UNL1        0.0003
     13 C          21.2142    9.0664   61.2298 C.3     1  UNL1        0.0004
     14 C          22.6096    9.0856   61.8910 C.3     1  UNL1        0.0065
     15 C          23.2041   10.5136   61.6020 C.3     1  UNL1        0.0004
     16 C          24.4464   10.6033   62.5227 C.3     1  UNL1        0.0004
     17 C          23.9622    9.8681   63.8249 C.3     1  UNL1        0.0073
     18 C          22.6235    9.1380   63.4547 C.3     1  UNL1        0.0576
     19 C          23.5298    7.9154   61.3933 C.3     1  UNL1        0.0004
     20 C          22.9283    9.8954   57.0864 C.3     1  UNL1        0.0041
     21 C          22.4069    7.7831   64.1498 C.2     1  UNL1        0.1507
     22 O          23.2916    6.9540   64.1584 O.2     1  UNL1       -0.2961
     23 C          21.1071    7.5027   64.8202 C.3     1  UNL1        0.0722
@<TRIPOS>BOND
     1     1     2    1
     2     1    11    1
     3     2     3    1
     4     3     4    2
     5     3     5    1
     6     5     6    2
     7     6     7    1
     8     6    11    1
     9     7     8    1
    10     8     9    1
    11     9    10    1
    12     9    15    1
    13    10    11    1
    14    10    12    1
    15    11    20    1
    16    12    13    1
    17    13    14    1
    18    14    15    1
    19    14    18    1
    20    14    19    1
    21    15    16    1
    22    16    17    1
    23    17    18    1
    24    18    21    1
    25    21    22    2
    26    21    23    1
