@<TRIPOS>MOLECULE
1A28_ligand
23 26 1 0 0
SMALL
GASTEIGER


@<TRIPOS>ATOM
      1 C          21.1557    9.3624   62.7316 C.3       1 UNL    0.0118
      2 C          21.1700    8.8286   64.1863 C.3       1 UNL    0.0694
      3 C          22.1476    7.6622   64.2909 C.2       1 UNL    0.1725
      4 O          21.9384    6.7632   65.1241 O.2       1 UNL   -0.2914
      5 C          23.3560    7.6490   63.4807 C.2       1 UNL    0.0289
      6 C          23.5999    8.5876   62.5844 C.2       1 UNL   -0.0420
      7 C          24.9329    8.5640   61.8453 C.3       1 UNL    0.0221
      8 C          24.7660    8.7713   60.3279 C.3       1 UNL    0.0044
      9 C          23.8980   10.0045   59.9672 C.3       1 UNL    0.0006
     10 C          22.4942    9.8279   60.6328 C.3       1 UNL    0.0035
     11 C          22.5684    9.7262   62.2017 C.3       1 UNL    0.0157
     12 C          21.5120   10.9397   60.1815 C.3       1 UNL    0.0003
     13 C          21.4141   11.0445   58.6340 C.3       1 UNL    0.0004
     14 C          22.8022   11.2865   58.0020 C.3       1 UNL    0.0065
     15 C          23.6973   10.0723   58.4498 C.3       1 UNL    0.0004
     16 C          24.9634   10.1847   57.5647 C.3       1 UNL    0.0004
     17 C          24.3765   10.6547   56.1844 C.3       1 UNL    0.0073
     18 C          22.8916   11.0851   56.4530 C.3       1 UNL    0.0576
     19 C          23.4068   12.6823   58.3893 C.3       1 UNL    0.0004
     20 C          23.1020   11.0505   62.8699 C.3       1 UNL    0.0041
     21 C          22.3974   12.2769   55.6156 C.2       1 UNL    0.1507
     22 O          23.1784   12.9138   54.9414 O.2       1 UNL   -0.2961
     23 C          20.9520   12.6348   55.6318 C.3       1 UNL    0.0722
@<TRIPOS>BOND
     1    1    2 1
     2    1   11 1
     3    2    3 1
     4    3    4 2
     5    3    5 2
     6    5    6 2
     7    6    7 1
     8    6   11 1
     9    7    8 1
    10    8    9 1
    11    9   10 1
    12    9   15 1
    13   10   11 1
    14   10   12 1
    15   11   20 1
    16   12   13 1
    17   13   14 1
    18   14   15 1
    19   14   18 1
    20   14   19 1
    21   15   16 1
    22   16   17 1
    23   17   18 1
    24   18   21 1
    25   21   22 2
    26   21   23 1
@<TRIPOS>SUBSTRUCTURE
     1 UNL     1 RESIDUE           4 A     UNL     0 ROOT
