@<TRIPOS>MOLECULE
1A28_ligand
 23 26 0 0 0
SMALL
GASTEIGER

@<TRIPOS>ATOM
      1 C          22.1388   12.9292   57.6063 C.3     1  UNL1        0.0118
      2 C          22.0303   13.4604   56.1546 C.3     1  UNL1        0.0694
      3 C          23.0510   12.7464   55.2738 C.2     1  UNL1        0.1725
      4 O          23.5303   13.3393   54.2914 O.2     1  UNL1       -0.2914
      5 C          23.3936   11.3568   55.5348 C.2     1  UNL1        0.0289
      6 C          22.9040   10.7055   56.5740 C.2     1  UNL1       -0.0420
      7 C          23.2271    9.2235   56.7264 C.3     1  UNL1        0.0221
      8 C          23.6592    8.8619   58.1602 C.3     1  UNL1        0.0044
      9 C          22.6824    9.3813   59.2467 C.3     1  UNL1        0.0006
     10 C          22.5722   10.9345   59.1052 C.3     1  UNL1        0.0035
     11 C          22.0226   11.3844   57.7005 C.3     1  UNL1        0.0157
     12 C          21.7433   11.5491   60.2628 C.3     1  UNL1        0.0003
     13 C          22.2812   11.1279   61.6587 C.3     1  UNL1        0.0004
     14 C          22.3180    9.5907   61.8021 C.3     1  UNL1        0.0065
     15 C          23.2419    9.0712   60.6390 C.3     1  UNL1        0.0004
     16 C          23.5006    7.5854   60.9917 C.3     1  UNL1        0.0004
     17 C          23.6372    7.6232   62.5572 C.3     1  UNL1        0.0073
     18 C          23.1357    9.0376   63.0159 C.3     1  UNL1        0.0576
     19 C          20.8855    8.9490   61.7935 C.3     1  UNL1        0.0004
     20 C          20.5404   10.9098   57.4498 C.3     1  UNL1        0.0041
     21 C          22.3916    9.0598   64.3618 C.2     1  UNL1        0.1507
     22 O          22.0293   10.1131   64.8408 O.2     1  UNL1       -0.2961
     23 C          22.1114    7.7777   65.0655 C.3     1  UNL1        0.0722
@<TRIPOS>BOND
     1     1     2    1
     2     1    11    1
     3     2     3    1
     4     3     4    2
     5     3     5    1
     6     5     6    2
     7     6     7    1
     8     6    11    1
     9     7     8    1
    10     8     9    1
    11     9    10    1
    12     9    15    1
    13    10    11    1
    14    10    12    1
    15    11    20    1
    16    12    13    1
    17    13    14    1
    18    14    15    1
    19    14    18    1
    20    14    19    1
    21    15    16    1
    22    16    17    1
    23    17    18    1
    24    18    21    1
    25    21    22    2
    26    21    23    1
